<configuration>
    <input>
        <net-file value="kreuzung.net.xml"/>
        <route-files value="kreuzung.rou.xml"/>
        <gui-settings-file value="kreuzung.settings.xml"/>
    </input>
    <time>
        <begin value="0"/>
        <end value="220"/>
    </time>
	
	<quit-on-end value = "true" />
	
</configuration>