<?xml version="1.0" encoding="UTF-8"?>
<routes xmlns:xsi="http://www.w3.org/2001/XMLSchema-instance" xsi:noNamespaceSchemaLocation="http://sumo.dlr.de/xsd/routes_file.xsd">
  <vType accel="1.0" decel="5.0" id="Car1" color="45,205,25" length="5.0" minGap="2.0" maxSpeed="5.0" sigma="0" />
  <vType accel="1.0" decel="5.0" id="Car" color="1,1,0" length="5.0" minGap="2.0" maxSpeed="5.0" tau ="1" sigma="0" />
  <vType accel="1.0" decel="5.0" id="Car2" color="40,80,185"  length="5.0" minGap="2.0" maxSpeed="5.0" sigma="0" />
  <vType id="Car3" length="5" maxSpeed="5.0" color="150,180,255" carFollowModel="Krauss" accel="2.6" decel="4.5" sigma="0.5"/>
   
	
	
	
  

	<!--<route id="route0" color="1,1,0" edges="lane1_1 lane2_1">
		<stop lane="lane2_1_0" endPos="40" duration="20"/>
	</route> 
	
	<route id="route1" color="1,1,0" edges="lane1_1 -lane3_1 lane10_1"> </route>
	<route id="route2" color="1,1,0" edges="lane4_1 -lane3_1 lane10_1"> </route>
	<route id="route3" color="1,1,0" edges="lane2_1 -lane3_1 lane10_1"> </route>
	<route id="route4" color="1,1,0" edges="-lane10_1 lane3_1 -lane1_1"> </route>	
	<route id="route44" color="1,1,0" edges="lane9_1 lane3_1 -lane1_1"> </route>	
	<route id="route45" color="1,1,0" edges="lane4_1 -lane2_1"> </route>	
	
	<route id="route5" color="1,1,0" edges="lane5_1 lane8_1"> </route>
	<route id="route6" color="1,1,0" edges="lane6_1 lane8_1"> </route>
	<route id="route7" color="1,1,0" edges="lane7_1 lane8_1"> </route>	
	
	<route id="route8" color="1,1,0" edges="-lane8_1 -lane5_1"> </route>
	<route id="route9" color="1,1,0" edges="lane6_1 -lane5_1"> </route>
	<route id="route10" color="1,1,0" edges="lane7_1 -lane6_1"> </route>	 
	
	

	
	<vehicle depart="0" id="veh1" route="route1" type="Car" color="45,205,25" departLane = "0"  arrivalLane = "0" departPos = "0" departSpeed = "5" arrivalSpeed= "5" />
	<vehicle depart="0" id="veh2" route="route2" type="Car" color="1,1,0" departLane = "0"  arrivalLane = "0" departPos = "0" departSpeed = "5" arrivalSpeed= "5" />  
	<vehicle depart="0" id="veh3" route="route3" type="Car" color="1,0,1" departLane = "0"  arrivalLane = "0" departPos = "0" departSpeed = "5" arrivalSpeed= "5" />
	<vehicle depart="0" id="veh33" route="route4" type="Car" color="100,150,250" departLane = "0"  arrivalLane = "0" departPos = "0" departSpeed = "5" arrivalSpeed= "5" />
	<vehicle depart="0" id="veh13" route="route44" type="Car" color="100,100,100" departLane = "0"  arrivalLane = "0" departPos = "0" departSpeed = "5" arrivalSpeed= "5" />
	<vehicle depart="0" id="veh14" route="route45" type="Car" color="150,180,255" departLane = "0"  arrivalLane = "0" departPos = "0" departSpeed = "5" arrivalSpeed= "5" />
	<vehicle depart="0" id="veh15" route="route45" type="Car" color="40,80,185" departLane = "0"  arrivalLane = "0" departPos = "0" departSpeed = "5" arrivalSpeed= "5" />
	
	<vehicle depart="0" id="veh4" route="route5" type="Car" color="45,205,25" departLane = "0"  arrivalLane = "0" departPos = "0" departSpeed = "5" arrivalSpeed= "5" />
	<vehicle depart="0" id="veh5" route="route6" type="Car" color="1,1,0" departLane = "0"  arrivalLane = "0" departPos = "0" departSpeed = "5" arrivalSpeed= "5" />  
	<vehicle depart="0" id="veh6" route="route7" type="Car" color="1,0,1" departLane = "0"  arrivalLane = "0" departPos = "0" departSpeed = "5" arrivalSpeed= "5" />
	
	<vehicle depart="0" id="veh7" route="route10" type="Car" color="0,205,0" departLane = "0"  arrivalLane = "0" departPos = "0" departSpeed = "5" arrivalSpeed= "5" />
	<vehicle depart="0" id="veh8" route="route9" type="Car" color="10,1,255" departLane = "0"  arrivalLane = "0" departPos = "0" departSpeed = "5" arrivalSpeed= "5" />  
	<vehicle depart="0" id="veh9" route="route8" type="Car" color="187,255,140" departLane = "0"  arrivalLane = "0" departPos = "0" departSpeed = "5" arrivalSpeed= "5" />
	
	<vehicle depart="0" id="veh10" route="route5" type="Car" color="145,0,205" departLane = "0"  arrivalLane = "0" departPos = "0" departSpeed = "5" arrivalSpeed= "5" />
	<vehicle depart="0" id="veh11" route="route6" type="Car" color="15,157,200" departLane = "0"  arrivalLane = "0" departPos = "0" departSpeed = "5" arrivalSpeed= "5" />  
	<vehicle depart="0" id="veh12" route="route7" type="Car" color="156,250,196" departLane = "0"  arrivalLane = "0" departPos = "0" departSpeed = "5" arrivalSpeed= "5" />-->
	 

	 
</routes>